
     RDKit          3D

  5  0  0  0  0  0  0  0  0  0999 V2000
   -1.6529   -0.5071    1.1037 B   0  0  0  0  0  0  0  0  0  0  0  0
    1.6989   -0.4920    0.8057 B   0  0  0  0  0  0  0  0  0  0  0  0
   -1.6529   -0.5071    1.1037 N   0  0  0  0  0  0  0  0  0  0  0  0
    1.6989   -0.4920    0.8057 N   0  0  0  0  0  0  0  0  0  0  0  0
   -0.0092    0.1998   -0.3819 Be  0  0  0  0  0  2  0  0  0  0  0  0
M  END
